 
  WebMO

 40 44  0        0              1 V2000
    5.1223    2.7857    0.5606 C   0  0  0  0  0  0  0  0  0  0  0  0
    3.9472    1.9250    0.7532 N   0  0  0  0  0  0  0  0  0  0  0  0
    4.0697    0.8425    0.0569 C   0  0  0  0  0  0  0  0  0  0  0  0
    5.2318    0.7686   -0.6673 N   0  0  0  0  0  0  0  0  0  0  0  0
    6.0111    1.9928   -0.4181 C   0  0  0  0  0  0  0  0  0  0  0  0
    6.9694    1.7516    0.0420 H   0  0  0  0  0  0  0  0  0  0  0  0
    6.1571    2.5507   -1.3431 H   0  0  0  0  0  0  0  0  0  0  0  0
    5.4970    0.0337   -1.2421 H   0  0  0  0  0  0  0  0  0  0  0  0
    3.0445   -0.2240    0.0423 C   0  0  0  0  0  0  0  0  0  0  0  0
    3.4324   -1.5679    0.0470 C   0  0  0  0  0  0  0  0  0  0  0  0
    2.4914   -2.5630    0.0335 C   0  0  0  0  0  0  0  0  0  0  0  0
    1.1342   -2.2468    0.0150 C   0  0  0  0  0  0  0  0  0  0  0  0
   -0.0000   -3.0345   -0.0006 N   0  0  0  0  0  0  0  0  0  0  0  0
   -1.1343   -2.2468   -0.0156 C   0  0  0  0  0  0  0  0  0  0  0  0
   -2.4915   -2.5631   -0.0345 C   0  0  0  0  0  0  0  0  0  0  0  0
   -3.4325   -1.5680   -0.0476 C   0  0  0  0  0  0  0  0  0  0  0  0
   -3.0447   -0.2240   -0.0424 C   0  0  0  0  0  0  0  0  0  0  0  0
   -1.6931    0.1091   -0.0231 C   0  0  0  0  0  0  0  0  0  0  0  0
   -0.7378   -0.8994   -0.0098 C   0  0  0  0  0  0  0  0  0  0  0  0
    0.7376   -0.8994    0.0101 C   0  0  0  0  0  0  0  0  0  0  0  0
    1.6929    0.1091    0.0296 C   0  0  0  0  0  0  0  0  0  0  0  0
    1.3887    1.1454    0.0327 H   0  0  0  0  0  0  0  0  0  0  0  0
   -1.3891    1.1454   -0.0190 H   0  0  0  0  0  0  0  0  0  0  0  0
   -4.0698    0.8424   -0.0577 C   0  0  0  0  0  0  0  0  0  0  0  0
   -5.2326    0.7684    0.6654 N   0  0  0  0  0  0  0  0  0  0  0  0
   -6.0120    1.9924    0.4154 C   0  0  0  0  0  0  0  0  0  0  0  0
   -5.1224    2.7854   -0.5626 C   0  0  0  0  0  0  0  0  0  0  0  0
   -3.9445    1.9273   -0.7498 N   0  0  0  0  0  0  0  0  0  0  0  0
   -5.6400    2.9410   -1.5092 H   0  0  0  0  0  0  0  0  0  0  0  0
   -4.8299    3.7397   -0.1247 H   0  0  0  0  0  0  0  0  0  0  0  0
   -6.9698    1.7509   -0.0455 H   0  0  0  0  0  0  0  0  0  0  0  0
   -6.1589    2.5504    1.3402 H   0  0  0  0  0  0  0  0  0  0  0  0
   -5.4968    0.0349    1.2426 H   0  0  0  0  0  0  0  0  0  0  0  0
   -4.4819   -1.8229   -0.0626 H   0  0  0  0  0  0  0  0  0  0  0  0
   -2.8026   -3.5973   -0.0391 H   0  0  0  0  0  0  0  0  0  0  0  0
   -0.0000   -4.0045   -0.0010 H   0  0  0  0  0  0  0  0  0  0  0  0
    2.8026   -3.5972    0.0370 H   0  0  0  0  0  0  0  0  0  0  0  0
    4.4818   -1.8228    0.0610 H   0  0  0  0  0  0  0  0  0  0  0  0
    4.8291    3.7400    0.1228 H   0  0  0  0  0  0  0  0  0  0  0  0
    5.6407    2.9417    1.5066 H   0  0  0  0  0  0  0  0  0  0  0  0
  4  3  1  0
  3  2  2  0
  2  1  1  0
  1  5  1  0
  4  5  1  0
  3  9  1  0
  9 10  1  0
 10 11  2  0
 11 12  1  0
 12 13  1  0
 13 14  1  0
 14 15  2  0
 15 16  1  0
 16 17  2  0
 17 18  1  0
 18 19  2  0
 14 19  1  0
 19 20  1  0
 12 20  2  0
 20 21  1  0
  9 21  2  0
 17 24  1  0
 24 25  1  0
 25 26  1  0
 26 27  1  0
 27 28  1  0
 24 28  2  0
  4  8  1  0
  1 39  1  0
  1 40  1  0
  5  6  1  0
  5  7  1  0
 10 38  1  0
 11 37  1  0
 13 36  1  0
 15 35  1  0
 16 34  1  0
 18 23  1  0
 21 22  1  0
 25 33  1  0
 26 31  1  0
 26 32  1  0
 27 29  1  0
 27 30  1  0
M  END
