REMARK  2 active torsions:
REMARK  status: ('A' for Active; 'I' for Inactive)
REMARK    1  A    between atoms: C_3  and  C_4 
REMARK    2  A    between atoms: C_14  and  C_15 
ROOT
HETATM    1  C   UNL     1       5.077  -2.850  -0.368  1.00  0.00     0.141 C 
HETATM    2  N   UNL     1       3.812  -2.084  -0.297  1.00  0.00    -0.374 N 
HETATM    3  C   UNL     1       4.105  -0.760   0.018  1.00  0.00     0.107 C 
HETATM    4  N   UNL     1       5.352  -0.522   0.335  1.00  0.00    -0.374 N 
HETATM    5  HN  UNL     1       5.749   0.380   0.598  1.00  0.00     0.161 HD
HETATM    6  C   UNL     1       6.088  -1.824   0.239  1.00  0.00     0.141 C 
HETATM    7  HN  UNL     1       3.033  -2.330  -0.890  1.00  0.00     0.161 HD
ENDROOT
BRANCH   3   8
HETATM    8  C   UNL     1       3.054   0.273   0.011  1.00  0.00     0.008 A 
HETATM    9  C   UNL     1       1.693  -0.073   0.007  1.00  0.00     0.030 A 
HETATM   10  C   UNL     1       0.727   0.940   0.002  1.00  0.00     0.004 A 
HETATM   11  C   UNL     1       1.137   2.306   0.005  1.00  0.00     0.043 A 
HETATM   12  C   UNL     1      -0.727   0.940  -0.001  1.00  0.00     0.004 A 
HETATM   13  C   UNL     1       2.492   2.663   0.015  1.00  0.00     0.031 A 
HETATM   14  N   UNL     1       0.000   3.108   0.000  1.00  0.00    -0.355 N 
HETATM   15  C   UNL     1       3.434   1.639   0.020  1.00  0.00     0.017 A 
HETATM   16  C   UNL     1      -1.137   2.306  -0.004  1.00  0.00     0.043 A 
HETATM   17  HN  UNL     1       0.000   4.116   0.000  1.00  0.00     0.166 HD
HETATM   18  C   UNL     1      -2.492   2.663  -0.016  1.00  0.00     0.031 A 
HETATM   19  C   UNL     1      -3.434   1.639  -0.020  1.00  0.00     0.017 A 
HETATM   20  C   UNL     1      -3.054   0.273  -0.011  1.00  0.00     0.008 A 
HETATM   21  C   UNL     1      -1.693  -0.073  -0.007  1.00  0.00     0.030 A 
BRANCH  20  22
HETATM   22  C   UNL     1      -4.105  -0.760  -0.018  1.00  0.00     0.107 C 
HETATM   23  N   UNL     1      -5.352  -0.522  -0.335  1.00  0.00    -0.374 N 
HETATM   24  C   UNL     1      -6.088  -1.824  -0.240  1.00  0.00     0.141 C 
HETATM   25  HN  UNL     1      -5.749   0.380  -0.597  1.00  0.00     0.161 HD
HETATM   26  C   UNL     1      -5.078  -2.850   0.368  1.00  0.00     0.141 C 
HETATM   27  N   UNL     1      -3.812  -2.084   0.297  1.00  0.00    -0.374 N 
HETATM   28  HN  UNL     1      -3.033  -2.330   0.890  1.00  0.00     0.161 HD
ENDBRANCH  20  22
ENDBRANCH   3   8
TORSDOF 2
