MODEL 1
REMARK VINA RESULT:      -8.8      0.000      0.000
REMARK  2 active torsions:
REMARK  status: ('A' for Active; 'I' for Inactive)
REMARK    1  A    between atoms: C_3  and  C_4 
REMARK    2  A    between atoms: C_14  and  C_15 
ROOT
HETATM    1  C   UNL     1      12.473  25.595   3.675  1.00  0.00     0.141 C 
HETATM    2  N   UNL     1      13.364  26.381   2.792  1.00  0.00    -0.374 N 
HETATM    3  C   UNL     1      14.303  25.525   2.223  1.00  0.00     0.107 C 
HETATM    4  N   UNL     1      14.306  24.304   2.695  1.00  0.00    -0.374 N 
HETATM    5  HN  UNL     1      14.923  23.545   2.405  1.00  0.00     0.161 HD
HETATM    6  C   UNL     1      13.235  24.231   3.740  1.00  0.00     0.141 C 
HETATM    7  HN  UNL     1      13.010  27.187   2.298  1.00  0.00     0.161 HD
ENDROOT
BRANCH   3   8
HETATM    8  C   UNL     1      15.232  26.000   1.182  1.00  0.00     0.008 A 
HETATM    9  C   UNL     1      15.899  25.100   0.336  1.00  0.00     0.030 A 
HETATM   10  C   UNL     1      16.772  25.594  -0.640  1.00  0.00     0.004 A 
HETATM   11  C   UNL     1      16.967  27.001  -0.765  1.00  0.00     0.043 A 
HETATM   12  C   UNL     1      17.601  24.965  -1.656  1.00  0.00     0.004 A 
HETATM   13  C   UNL     1      16.302  27.909   0.070  1.00  0.00     0.031 A 
HETATM   14  N   UNL     1      17.871  27.231  -1.798  1.00  0.00    -0.355 N 
HETATM   15  C   UNL     1      15.440  27.395   1.033  1.00  0.00     0.017 A 
HETATM   16  C   UNL     1      18.267  26.017  -2.351  1.00  0.00     0.043 A 
HETATM   17  HN  UNL     1      18.189  28.138  -2.100  1.00  0.00     0.166 HD
HETATM   18  C   UNL     1      19.159  25.752  -3.398  1.00  0.00     0.031 A 
HETATM   19  C   UNL     1      19.375  24.422  -3.748  1.00  0.00     0.017 A 
HETATM   20  C   UNL     1      18.721  23.357  -3.078  1.00  0.00     0.008 A 
HETATM   21  C   UNL     1      17.835  23.635  -2.024  1.00  0.00     0.030 A 
BRANCH  20  22
HETATM   22  C   UNL     1      18.998  21.973  -3.499  1.00  0.00     0.107 C 
HETATM   23  N   UNL     1      19.217  20.991  -2.661  1.00  0.00    -0.374 N 
HETATM   24  C   UNL     1      19.434  19.754  -3.478  1.00  0.00     0.141 C 
HETATM   25  HN  UNL     1      19.237  21.056  -1.644  1.00  0.00     0.161 HD
HETATM   26  C   UNL     1      19.479  20.221  -4.969  1.00  0.00     0.141 C 
HETATM   27  N   UNL     1      19.017  21.622  -4.846  1.00  0.00    -0.374 N 
HETATM   28  HN  UNL     1      19.230  22.295  -5.568  1.00  0.00     0.161 HD
ENDBRANCH  20  22
ENDBRANCH   3   8
TORSDOF 2
ENDMDL
MODEL 2
REMARK VINA RESULT:      -8.8      0.466      7.443
REMARK  2 active torsions:
REMARK  status: ('A' for Active; 'I' for Inactive)
REMARK    1  A    between atoms: C_3  and  C_4 
REMARK    2  A    between atoms: C_14  and  C_15 
ROOT
HETATM    1  C   UNL     1      19.722  20.129  -5.236  1.00  0.00     0.141 C 
HETATM    2  N   UNL     1      19.285  21.539  -5.121  1.00  0.00    -0.374 N 
HETATM    3  C   UNL     1      19.288  21.903  -3.777  1.00  0.00     0.107 C 
HETATM    4  N   UNL     1      19.500  20.927  -2.933  1.00  0.00    -0.374 N 
HETATM    5  HN  UNL     1      19.532  21.001  -1.916  1.00  0.00     0.161 HD
HETATM    6  C   UNL     1      19.688  19.678  -3.739  1.00  0.00     0.141 C 
HETATM    7  HN  UNL     1      19.501  22.200  -5.852  1.00  0.00     0.161 HD
ENDROOT
BRANCH   3   8
HETATM    8  C   UNL     1      19.040  23.297  -3.368  1.00  0.00     0.008 A 
HETATM    9  C   UNL     1      18.148  23.601  -2.327  1.00  0.00     0.030 A 
HETATM   10  C   UNL     1      17.943  24.939  -1.968  1.00  0.00     0.004 A 
HETATM   11  C   UNL     1      18.643  25.971  -2.660  1.00  0.00     0.043 A 
HETATM   12  C   UNL     1      17.117  25.594  -0.966  1.00  0.00     0.004 A 
HETATM   13  C   UNL     1      19.540  25.678  -3.696  1.00  0.00     0.031 A 
HETATM   14  N   UNL     1      18.269  27.197  -2.120  1.00  0.00    -0.355 N 
HETATM   15  C   UNL     1      19.728  24.341  -4.035  1.00  0.00     0.017 A 
HETATM   16  C   UNL     1      17.348  26.995  -1.097  1.00  0.00     0.043 A 
HETATM   17  HN  UNL     1      18.613  28.095  -2.424  1.00  0.00     0.166 HD
HETATM   18  C   UNL     1      16.693  27.924  -0.277  1.00  0.00     0.031 A 
HETATM   19  C   UNL     1      15.808  27.436   0.679  1.00  0.00     0.017 A 
HETATM   20  C   UNL     1      15.564  26.048   0.834  1.00  0.00     0.008 A 
HETATM   21  C   UNL     1      16.220  25.127   0.001  1.00  0.00     0.030 A 
BRANCH  20  22
HETATM   22  C   UNL     1      14.611  25.602   1.866  1.00  0.00     0.107 C 
HETATM   23  N   UNL     1      14.680  24.438   2.461  1.00  0.00    -0.374 N 
HETATM   24  C   UNL     1      13.554  24.379   3.448  1.00  0.00     0.141 C 
HETATM   25  HN  UNL     1      15.371  23.709   2.286  1.00  0.00     0.161 HD
HETATM   26  C   UNL     1      12.692  25.659   3.200  1.00  0.00     0.141 C 
HETATM   27  N   UNL     1      13.574  26.428   2.290  1.00  0.00    -0.374 N 
HETATM   28  HN  UNL     1      13.190  27.148   1.696  1.00  0.00     0.161 HD
ENDBRANCH  20  22
ENDBRANCH   3   8
TORSDOF 2
ENDMDL
MODEL 3
REMARK VINA RESULT:      -8.4     10.817     16.860
REMARK  2 active torsions:
REMARK  status: ('A' for Active; 'I' for Inactive)
REMARK    1  A    between atoms: C_3  and  C_4 
REMARK    2  A    between atoms: C_14  and  C_15 
ROOT
HETATM    1  C   UNL     1      10.866  23.396   6.613  1.00  0.00     0.141 C 
HETATM    2  N   UNL     1      10.115  22.949   7.808  1.00  0.00    -0.374 N 
HETATM    3  C   UNL     1       8.886  23.603   7.838  1.00  0.00     0.107 C 
HETATM    4  N   UNL     1       8.733  24.549   6.947  1.00  0.00    -0.374 N 
HETATM    5  HN  UNL     1       7.909  25.136   6.821  1.00  0.00     0.161 HD
HETATM    6  C   UNL     1       9.998  24.608   6.144  1.00  0.00     0.141 C 
HETATM    7  HN  UNL     1      10.226  22.008   8.157  1.00  0.00     0.161 HD
ENDROOT
BRANCH   3   8
HETATM    8  C   UNL     1       7.861  23.248   8.834  1.00  0.00     0.008 A 
HETATM    9  C   UNL     1       8.152  22.384   9.903  1.00  0.00     0.030 A 
HETATM   10  C   UNL     1       7.149  22.074  10.829  1.00  0.00     0.004 A 
HETATM   11  C   UNL     1       5.849  22.641  10.676  1.00  0.00     0.043 A 
HETATM   12  C   UNL     1       7.105  21.243  12.020  1.00  0.00     0.004 A 
HETATM   13  C   UNL     1       5.548  23.508   9.617  1.00  0.00     0.031 A 
HETATM   14  N   UNL     1       5.043  22.183  11.714  1.00  0.00    -0.355 N 
HETATM   15  C   UNL     1       6.562  23.802   8.710  1.00  0.00     0.017 A 
HETATM   16  C   UNL     1       5.779  21.337  12.538  1.00  0.00     0.043 A 
HETATM   17  HN  UNL     1       4.074  22.426  11.848  1.00  0.00     0.166 HD
HETATM   18  C   UNL     1       5.393  20.641  13.691  1.00  0.00     0.031 A 
HETATM   19  C   UNL     1       6.348  19.853  14.325  1.00  0.00     0.017 A 
HETATM   20  C   UNL     1       7.675  19.746  13.836  1.00  0.00     0.008 A 
HETATM   21  C   UNL     1       8.048  20.442  12.675  1.00  0.00     0.030 A 
BRANCH  20  22
HETATM   22  C   UNL     1       8.634  18.891  14.556  1.00  0.00     0.107 C 
HETATM   23  N   UNL     1       8.279  17.930  15.370  1.00  0.00    -0.374 N 
HETATM   24  C   UNL     1       9.537  17.293  15.878  1.00  0.00     0.141 C 
HETATM   25  HN  UNL     1       7.325  17.663  15.613  1.00  0.00     0.161 HD
HETATM   26  C   UNL     1      10.714  18.176  15.350  1.00  0.00     0.141 C 
HETATM   27  N   UNL     1      10.007  19.051  14.386  1.00  0.00    -0.374 N 
HETATM   28  HN  UNL     1      10.409  19.934  14.108  1.00  0.00     0.161 HD
ENDBRANCH  20  22
ENDBRANCH   3   8
TORSDOF 2
ENDMDL
MODEL 4
REMARK VINA RESULT:      -7.6      3.802      8.950
REMARK  2 active torsions:
REMARK  status: ('A' for Active; 'I' for Inactive)
REMARK    1  A    between atoms: C_3  and  C_4 
REMARK    2  A    between atoms: C_14  and  C_15 
ROOT
HETATM    1  C   UNL     1      17.849  29.430  -3.509  1.00  0.00     0.141 C 
HETATM    2  N   UNL     1      17.867  28.324  -2.525  1.00  0.00    -0.374 N 
HETATM    3  C   UNL     1      16.821  28.506  -1.624  1.00  0.00     0.107 C 
HETATM    4  N   UNL     1      16.183  29.643  -1.729  1.00  0.00    -0.374 N 
HETATM    5  HN  UNL     1      15.398  29.953  -1.156  1.00  0.00     0.161 HD
HETATM    6  C   UNL     1      16.821  30.406  -2.850  1.00  0.00     0.141 C 
HETATM    7  HN  UNL     1      18.181  27.404  -2.797  1.00  0.00     0.161 HD
ENDROOT
BRANCH   3   8
HETATM    8  C   UNL     1      16.498  27.480  -0.618  1.00  0.00     0.008 A 
HETATM    9  C   UNL     1      15.325  27.556   0.150  1.00  0.00     0.030 A 
HETATM   10  C   UNL     1      15.055  26.559   1.095  1.00  0.00     0.004 A 
HETATM   11  C   UNL     1      15.972  25.479   1.261  1.00  0.00     0.043 A 
HETATM   12  C   UNL     1      13.966  26.331   2.031  1.00  0.00     0.004 A 
HETATM   13  C   UNL     1      17.143  25.389   0.497  1.00  0.00     0.031 A 
HETATM   14  N   UNL     1      15.480  24.631   2.249  1.00  0.00    -0.355 N 
HETATM   15  C   UNL     1      17.389  26.392  -0.436  1.00  0.00     0.017 A 
HETATM   16  C   UNL     1      14.271  25.125   2.728  1.00  0.00     0.043 A 
HETATM   17  HN  UNL     1      15.931  23.788   2.568  1.00  0.00     0.166 HD
HETATM   18  C   UNL     1      13.420  24.619   3.720  1.00  0.00     0.031 A 
HETATM   19  C   UNL     1      12.258  25.329   4.004  1.00  0.00     0.017 A 
HETATM   20  C   UNL     1      11.928  26.527   3.321  1.00  0.00     0.008 A 
HETATM   21  C   UNL     1      12.792  27.029   2.335  1.00  0.00     0.030 A 
BRANCH  20  22
HETATM   22  C   UNL     1      10.681  27.229   3.674  1.00  0.00     0.107 C 
HETATM   23  N   UNL     1      10.145  28.167   2.937  1.00  0.00    -0.374 N 
HETATM   24  C   UNL     1       8.888  28.606   3.625  1.00  0.00     0.141 C 
HETATM   25  HN  UNL     1      10.512  28.532   2.058  1.00  0.00     0.161 HD
HETATM   26  C   UNL     1       8.872  27.875   5.007  1.00  0.00     0.141 C 
HETATM   27  N   UNL     1       9.977  26.904   4.831  1.00  0.00    -0.374 N 
HETATM   28  HN  UNL     1      10.434  26.500   5.635  1.00  0.00     0.161 HD
ENDBRANCH  20  22
ENDBRANCH   3   8
TORSDOF 2
ENDMDL
MODEL 5
REMARK VINA RESULT:      -7.6      3.902      6.450
REMARK  2 active torsions:
REMARK  status: ('A' for Active; 'I' for Inactive)
REMARK    1  A    between atoms: C_3  and  C_4 
REMARK    2  A    between atoms: C_14  and  C_15 
ROOT
HETATM    1  C   UNL     1       8.074  28.388   5.536  1.00  0.00     0.141 C 
HETATM    2  N   UNL     1       8.931  27.228   5.202  1.00  0.00    -0.374 N 
HETATM    3  C   UNL     1      10.031  27.676   4.475  1.00  0.00     0.107 C 
HETATM    4  N   UNL     1       9.990  28.933   4.114  1.00  0.00    -0.374 N 
HETATM    5  HN  UNL     1      10.698  29.432   3.576  1.00  0.00     0.161 HD
HETATM    6  C   UNL     1       8.707  29.502   4.641  1.00  0.00     0.141 C 
HETATM    7  HN  UNL     1       8.994  26.442   5.832  1.00  0.00     0.161 HD
ENDROOT
BRANCH   3   8
HETATM    8  C   UNL     1      11.136  26.764   4.130  1.00  0.00     0.008 A 
HETATM    9  C   UNL     1      12.039  27.072   3.100  1.00  0.00     0.030 A 
HETATM   10  C   UNL     1      13.076  26.178   2.806  1.00  0.00     0.004 A 
HETATM   11  C   UNL     1      13.202  24.972   3.557  1.00  0.00     0.043 A 
HETATM   12  C   UNL     1      14.158  26.181   1.836  1.00  0.00     0.004 A 
HETATM   13  C   UNL     1      12.309  24.657   4.590  1.00  0.00     0.031 A 
HETATM   14  N   UNL     1      14.299  24.265   3.075  1.00  0.00    -0.355 N 
HETATM   15  C   UNL     1      11.287  25.560   4.865  1.00  0.00     0.017 A 
HETATM   16  C   UNL     1      14.892  24.975   2.036  1.00  0.00     0.043 A 
HETATM   17  HN  UNL     1      14.617  23.375   3.426  1.00  0.00     0.166 HD
HETATM   18  C   UNL     1      16.008  24.658   1.250  1.00  0.00     0.031 A 
HETATM   19  C   UNL     1      16.386  25.564   0.263  1.00  0.00     0.017 A 
HETATM   20  C   UNL     1      15.678  26.773   0.047  1.00  0.00     0.008 A 
HETATM   21  C   UNL     1      14.556  27.076   0.836  1.00  0.00     0.030 A 
BRANCH  20  22
HETATM   22  C   UNL     1      16.133  27.685  -1.018  1.00  0.00     0.107 C 
HETATM   23  N   UNL     1      17.297  27.587  -1.607  1.00  0.00    -0.374 N 
HETATM   24  C   UNL     1      17.365  28.677  -2.634  1.00  0.00     0.141 C 
HETATM   25  HN  UNL     1      18.022  26.899  -1.406  1.00  0.00     0.161 HD
HETATM   26  C   UNL     1      16.090  29.555  -2.420  1.00  0.00     0.141 C 
HETATM   27  N   UNL     1      15.314  28.712  -1.481  1.00  0.00    -0.374 N 
HETATM   28  HN  UNL     1      14.595  29.121  -0.902  1.00  0.00     0.161 HD
ENDBRANCH  20  22
ENDBRANCH   3   8
TORSDOF 2
ENDMDL
MODEL 6
REMARK VINA RESULT:      -7.6     19.159     24.021
REMARK  2 active torsions:
REMARK  status: ('A' for Active; 'I' for Inactive)
REMARK    1  A    between atoms: C_3  and  C_4 
REMARK    2  A    between atoms: C_14  and  C_15 
ROOT
HETATM    1  C   UNL     1      19.202  18.605  22.168  1.00  0.00     0.141 C 
HETATM    2  N   UNL     1      18.038  17.729  21.902  1.00  0.00    -0.374 N 
HETATM    3  C   UNL     1      17.144  17.835  22.964  1.00  0.00     0.107 C 
HETATM    4  N   UNL     1      17.576  18.516  23.994  1.00  0.00    -0.374 N 
HETATM    5  HN  UNL     1      17.066  18.693  24.860  1.00  0.00     0.161 HD
HETATM    6  C   UNL     1      18.960  18.986  23.664  1.00  0.00     0.141 C 
HETATM    7  HN  UNL     1      17.725  17.572  20.956  1.00  0.00     0.161 HD
ENDROOT
BRANCH   3   8
HETATM    8  C   UNL     1      15.821  17.189  22.909  1.00  0.00     0.008 A 
HETATM    9  C   UNL     1      14.961  17.382  21.816  1.00  0.00     0.030 A 
HETATM   10  C   UNL     1      13.713  16.748  21.803  1.00  0.00     0.004 A 
HETATM   11  C   UNL     1      13.334  15.915  22.897  1.00  0.00     0.043 A 
HETATM   12  C   UNL     1      12.608  16.727  20.858  1.00  0.00     0.004 A 
HETATM   13  C   UNL     1      14.186  15.710  23.990  1.00  0.00     0.031 A 
HETATM   14  N   UNL     1      12.063  15.408  22.645  1.00  0.00    -0.355 N 
HETATM   15  C   UNL     1      15.421  16.350  23.980  1.00  0.00     0.017 A 
HETATM   16  C   UNL     1      11.604  15.884  21.421  1.00  0.00     0.043 A 
HETATM   17  HN  UNL     1      11.552  14.789  23.256  1.00  0.00     0.166 HD
HETATM   18  C   UNL     1      10.390  15.652  20.761  1.00  0.00     0.031 A 
HETATM   19  C   UNL     1      10.191  16.268  19.529  1.00  0.00     0.017 A 
HETATM   20  C   UNL     1      11.175  17.105  18.945  1.00  0.00     0.008 A 
HETATM   21  C   UNL     1      12.385  17.337  19.619  1.00  0.00     0.030 A 
BRANCH  20  22
HETATM   22  C   UNL     1      10.897  17.727  17.638  1.00  0.00     0.107 C 
HETATM   23  N   UNL     1      11.824  18.232  16.864  1.00  0.00    -0.374 N 
HETATM   24  C   UNL     1      11.142  18.742  15.632  1.00  0.00     0.141 C 
HETATM   25  HN  UNL     1      12.824  18.271  17.063  1.00  0.00     0.161 HD
HETATM   26  C   UNL     1       9.607  18.606  15.898  1.00  0.00     0.141 C 
HETATM   27  N   UNL     1       9.601  17.790  17.134  1.00  0.00    -0.374 N 
HETATM   28  HN  UNL     1       8.794  17.789  17.740  1.00  0.00     0.161 HD
ENDBRANCH  20  22
ENDBRANCH   3   8
TORSDOF 2
ENDMDL
MODEL 7
REMARK VINA RESULT:      -7.5     19.302     24.004
REMARK  2 active torsions:
REMARK  status: ('A' for Active; 'I' for Inactive)
REMARK    1  A    between atoms: C_3  and  C_4 
REMARK    2  A    between atoms: C_14  and  C_15 
ROOT
HETATM    1  C   UNL     1       9.804  17.628  15.396  1.00  0.00     0.141 C 
HETATM    2  N   UNL     1      10.027  16.725  16.548  1.00  0.00    -0.374 N 
HETATM    3  C   UNL     1      10.859  17.362  17.464  1.00  0.00     0.107 C 
HETATM    4  N   UNL     1      11.377  18.493  17.059  1.00  0.00    -0.374 N 
HETATM    5  HN  UNL     1      12.010  19.093  17.587  1.00  0.00     0.161 HD
HETATM    6  C   UNL     1      10.867  18.740  15.672  1.00  0.00     0.141 C 
HETATM    7  HN  UNL     1       9.304  16.084  16.841  1.00  0.00     0.161 HD
ENDROOT
BRANCH   3   8
HETATM    8  C   UNL     1      11.137  16.763  18.781  1.00  0.00     0.008 A 
HETATM    9  C   UNL     1      12.336  17.029  19.464  1.00  0.00     0.030 A 
HETATM   10  C   UNL     1      12.559  16.440  20.714  1.00  0.00     0.004 A 
HETATM   11  C   UNL     1      11.568  15.584  21.278  1.00  0.00     0.043 A 
HETATM   12  C   UNL     1      13.654  16.498  21.669  1.00  0.00     0.004 A 
HETATM   13  C   UNL     1      10.366  15.316  20.609  1.00  0.00     0.031 A 
HETATM   14  N   UNL     1      12.025  15.133  22.512  1.00  0.00    -0.355 N 
HETATM   15  C   UNL     1      10.166  15.912  19.368  1.00  0.00     0.017 A 
HETATM   16  C   UNL     1      13.282  15.671  22.770  1.00  0.00     0.043 A 
HETATM   17  HN  UNL     1      11.522  14.512  23.127  1.00  0.00     0.166 HD
HETATM   18  C   UNL     1      14.129  15.497  23.873  1.00  0.00     0.031 A 
HETATM   19  C   UNL     1      15.350  16.164  23.867  1.00  0.00     0.017 A 
HETATM   20  C   UNL     1      15.742  16.997  22.788  1.00  0.00     0.008 A 
HETATM   21  C   UNL     1      14.889  17.157  21.684  1.00  0.00     0.030 A 
BRANCH  20  22
HETATM   22  C   UNL     1      17.051  17.671  22.847  1.00  0.00     0.107 C 
HETATM   23  N   UNL     1      17.387  18.519  23.786  1.00  0.00    -0.374 N 
HETATM   24  C   UNL     1      18.791  18.960  23.500  1.00  0.00     0.141 C 
HETATM   25  HN  UNL     1      16.804  18.823  24.565  1.00  0.00     0.161 HD
HETATM   26  C   UNL     1      19.163  18.349  22.111  1.00  0.00     0.141 C 
HETATM   27  N   UNL     1      18.033  17.416  21.894  1.00  0.00    -0.374 N 
HETATM   28  HN  UNL     1      17.802  17.101  20.963  1.00  0.00     0.161 HD
ENDBRANCH  20  22
ENDBRANCH   3   8
TORSDOF 2
ENDMDL
MODEL 8
REMARK VINA RESULT:      -7.5     12.659     18.040
REMARK  2 active torsions:
REMARK  status: ('A' for Active; 'I' for Inactive)
REMARK    1  A    between atoms: C_3  and  C_4 
REMARK    2  A    between atoms: C_14  and  C_15 
ROOT
HETATM    1  C   UNL     1       9.142  23.974   7.797  1.00  0.00     0.141 C 
HETATM    2  N   UNL     1       8.693  23.192   8.971  1.00  0.00    -0.374 N 
HETATM    3  C   UNL     1       7.310  23.309   9.087  1.00  0.00     0.107 C 
HETATM    4  N   UNL     1       6.751  24.175   8.280  1.00  0.00    -0.374 N 
HETATM    5  HN  UNL     1       5.758  24.398   8.226  1.00  0.00     0.161 HD
HETATM    6  C   UNL     1       7.846  24.776   7.452  1.00  0.00     0.141 C 
HETATM    7  HN  UNL     1       9.180  22.350   9.239  1.00  0.00     0.161 HD
ENDROOT
BRANCH   3   8
HETATM    8  C   UNL     1       6.562  22.516  10.078  1.00  0.00     0.008 A 
HETATM    9  C   UNL     1       7.224  21.804  11.091  1.00  0.00     0.030 A 
HETATM   10  C   UNL     1       6.474  21.065  12.014  1.00  0.00     0.004 A 
HETATM   11  C   UNL     1       5.051  21.048  11.915  1.00  0.00     0.043 A 
HETATM   12  C   UNL     1       6.823  20.237  13.157  1.00  0.00     0.004 A 
HETATM   13  C   UNL     1       4.380  21.760  10.911  1.00  0.00     0.031 A 
HETATM   14  N   UNL     1       4.547  20.251  12.937  1.00  0.00    -0.355 N 
HETATM   15  C   UNL     1       5.146  22.487  10.006  1.00  0.00     0.017 A 
HETATM   16  C   UNL     1       5.598  19.750  13.700  1.00  0.00     0.043 A 
HETATM   17  HN  UNL     1       3.570  20.065  13.101  1.00  0.00     0.166 HD
HETATM   18  C   UNL     1       5.577  18.906  14.818  1.00  0.00     0.031 A 
HETATM   19  C   UNL     1       6.796  18.557  15.391  1.00  0.00     0.017 A 
HETATM   20  C   UNL     1       8.029  19.031  14.875  1.00  0.00     0.008 A 
HETATM   21  C   UNL     1       8.037  19.871  13.749  1.00  0.00     0.030 A 
BRANCH  20  22
HETATM   22  C   UNL     1       9.283  18.619  15.531  1.00  0.00     0.107 C 
HETATM   23  N   UNL     1      10.448  18.631  14.936  1.00  0.00    -0.374 N 
HETATM   24  C   UNL     1      11.460  18.166  15.939  1.00  0.00     0.141 C 
HETATM   25  HN  UNL     1      10.634  18.905  13.972  1.00  0.00     0.161 HD
HETATM   26  C   UNL     1      10.648  17.704  17.192  1.00  0.00     0.141 C 
HETATM   27  N   UNL     1       9.296  18.209  16.861  1.00  0.00    -0.374 N 
HETATM   28  HN  UNL     1       8.480  17.810  17.303  1.00  0.00     0.161 HD
ENDBRANCH  20  22
ENDBRANCH   3   8
TORSDOF 2
ENDMDL
MODEL 9
REMARK VINA RESULT:      -7.4      4.096      6.780
REMARK  2 active torsions:
REMARK  status: ('A' for Active; 'I' for Inactive)
REMARK    1  A    between atoms: C_3  and  C_4 
REMARK    2  A    between atoms: C_14  and  C_15 
ROOT
HETATM    1  C   UNL     1      19.426  27.894  -4.169  1.00  0.00     0.141 C 
HETATM    2  N   UNL     1      19.780  26.456  -4.167  1.00  0.00    -0.374 N 
HETATM    3  C   UNL     1      19.102  25.827  -3.127  1.00  0.00     0.107 C 
HETATM    4  N   UNL     1      18.463  26.626  -2.311  1.00  0.00    -0.374 N 
HETATM    5  HN  UNL     1      17.919  26.348  -1.494  1.00  0.00     0.161 HD
HETATM    6  C   UNL     1      18.681  28.025  -2.801  1.00  0.00     0.141 C 
HETATM    7  HN  UNL     1      19.985  25.980  -5.034  1.00  0.00     0.161 HD
ENDROOT
BRANCH   3   8
HETATM    8  C   UNL     1      19.143  24.362  -2.970  1.00  0.00     0.008 A 
HETATM    9  C   UNL     1      19.516  23.526  -4.034  1.00  0.00     0.030 A 
HETATM   10  C   UNL     1      19.543  22.140  -3.841  1.00  0.00     0.004 A 
HETATM   11  C   UNL     1      19.196  21.598  -2.568  1.00  0.00     0.043 A 
HETATM   12  C   UNL     1      19.874  21.013  -4.699  1.00  0.00     0.004 A 
HETATM   13  C   UNL     1      18.828  22.423  -1.498  1.00  0.00     0.031 A 
HETATM   14  N   UNL     1      19.302  20.212  -2.635  1.00  0.00    -0.355 N 
HETATM   15  C   UNL     1      18.808  23.798  -1.713  1.00  0.00     0.017 A 
HETATM   16  C   UNL     1      19.709  19.836  -3.912  1.00  0.00     0.043 A 
HETATM   17  HN  UNL     1      19.113  19.577  -1.875  1.00  0.00     0.166 HD
HETATM   18  C   UNL     1      19.941  18.561  -4.444  1.00  0.00     0.031 A 
HETATM   19  C   UNL     1      20.345  18.475  -5.773  1.00  0.00     0.017 A 
HETATM   20  C   UNL     1      20.523  19.630  -6.577  1.00  0.00     0.008 A 
HETATM   21  C   UNL     1      20.279  20.902  -6.034  1.00  0.00     0.030 A 
BRANCH  20  22
HETATM   22  C   UNL     1      20.951  19.466  -7.977  1.00  0.00     0.107 C 
HETATM   23  N   UNL     1      20.178  18.989  -8.919  1.00  0.00    -0.374 N 
HETATM   24  C   UNL     1      20.971  19.003 -10.191  1.00  0.00     0.141 C 
HETATM   25  HN  UNL     1      19.216  18.667  -8.809  1.00  0.00     0.161 HD
HETATM   26  C   UNL     1      22.425  19.413  -9.790  1.00  0.00     0.141 C 
HETATM   27  N   UNL     1      22.226  19.843  -8.387  1.00  0.00    -0.374 N 
HETATM   28  HN  UNL     1      23.006  19.868  -7.746  1.00  0.00     0.161 HD
ENDBRANCH  20  22
ENDBRANCH   3   8
TORSDOF 2
ENDMDL
